[General]
network = flora.simulations.LoRaNetworkTest
**.maxTransmissionDuration = 4s
**.energyDetection = -110dBm

#cmdenv-autoflush = true
#cmdenv-status-frequency = 10000000s
#cmdenv-express-mode = false
#cmdenv-output-file = cmd_env_log.txt
**.vector-recording = true

rng-class = "cMersenneTwister"
**.loRaGW[*].numUdpApps = 1
**.loRaGW[0].packetForwarder.localPort = 2000
**.loRaGW[0].packetForwarder.destPort = 1000
**.loRaGW[0].packetForwarder.destAddresses = "networkServer"
**.loRaGW[0].packetForwarder.indexNumber = 0

**.networkServer.numApps = 1
**.networkServer.**.evaluateADRinServer = true
**.networkServer.app[0].typename = "NetworkServerApp"
**.networkServer.app[0].destAddresses = "loRaGW[0]"
**.networkServer.app[0].destPort = 2000
**.networkServer.app[0].localPort = 1000
**.networkServer.app[0].adrMethod = ${"avg"}


**.numberOfPacketsToSend = 0 #${numberOfPAckets = 200..5000 step 200} #100 #obviously 0 means infinite number of packets
sim-time-limit = 1d
simtime-resolution = -11
repeat = 30

#**.timeToFirstPacket = exponential(1000s)
#**.timeToNextPacket = exponential(1000s)
**.timeToFirstPacket = uniform(120s, 300s)  # Random initial delay between 1 and 3 minutes
**.timeToNextPacket = uniform(120s, 300s)  # Random interval between packet transmissions
**.alohaChannelModel = false

#nodes features
**.numberOfNodes = 10
**.constraintAreaMaxX = 5000m
**.constraintAreaMaxY = 5000m
#
#**.loRaGW[0].mobility.initialX = 250.0m
#**.loRaGW[0].mobility.initialY = 250.0m
#
## Node positions
#**.loRaNodes[0].mobility.initialX = 958.6m
#**.loRaNodes[0].mobility.initialY = 958.6m
#
#**.loRaNodes[1].mobility.initialX = -811.2m
#**.loRaNodes[1].mobility.initialY = 1311.2m
#
#**.loRaNodes[2].mobility.initialX = -1161.4m
#**.loRaNodes[2].mobility.initialY = -661.4m
#
#**.loRaNodes[3].mobility.initialX = 2016.4m
#**.loRaNodes[3].mobility.initialY = -1516.4m
#
#**.loRaNodes[4].mobility.initialX = 250.0m
#**.loRaNodes[4].mobility.initialY = 2550.0m

#**.loRaNodes[0].**.initialX = 300m
#**.loRaNodes[0].**.initialY = 350m
**.loRaNodes[*].**initialLoRaSF = 12
**.loRaNodes[*].**initialLoRaTP = 14dBm
**.loRaNodes[*].**initialLoRaBW = 125kHz
**.loRaNodes[*].**dataSize = 25B
**.loRaNodes[*].**initialLoRaCR = 4
**.loRaNodes[*].**.initFromDisplayString = false
**.loRaNodes[*].**.evaluateADRinNode = true
**.loRaNodes[*].numApps = 1
**.loRaNodes[*].receiver.isEnabled = false
**.loRaNodes[*].app[0].typename = "SimpleLoRaApp"
*.loRaNodes[*]..velocity = uniform(10mps, 30mps) # Kecepatan kendaraan 10-30 m/s
*.loRaNodes[*]..direction = uniform(0, 360deg)  # Arah acak


#gateway features
**.numberOfGateways = 1
**.loRaGW[0].**.initialX = 2500.00m
**.loRaGW[0].**.initialY = 2500.00m
#*.loRaGW[0].x = 2500.00m
#*.loRaGW[0].y = 2500.00m
**.LoRaGWNic.radio.iAmGateway = true
**.loRaGW[*].**.initFromDisplayString = false

#power consumption features
**.loRaNodes[*].LoRaNic.radio.energyConsumer.typename = "LoRaEnergyConsumer"
**.loRaNodes[*].**.energySourceModule = "^.IdealEpEnergyStorage"
**.loRaNodes[*].LoRaNic.radio.energyConsumer.configFile = xmldoc("energyConsumptionParameters.xml")

#general features
**.sigma = 3.57
**.constraintAreaMinX = 0m
**.constraintAreaMinY = 0m
**.constraintAreaMinZ = 0m
**.constraintAreaMaxZ = 0m

LoRaNetworkTest.**.radio.separateTransmissionParts = false
LoRaNetworkTest.**.radio.separateReceptionParts = false


**.ipv4Delayer.config = xmldoc("cloudDelays.xml")
**.radio.radioMediumModule = "LoRaMedium"
**.LoRaMedium.pathLossType = "LoRaLogNormalShadowing"
**.minInterferenceTime = 0s
**.displayAddresses = false

# cache features
**.LoRaMedium.mediumLimitCacheType = "LoRaMediumCache"
**.LoRaMedium.rangeFilter = "communicationRange"
**.LoRaMedium.neighborCacheType = "LoRaNeighborCache"
**.LoRaMedium.neighborCache.range = 546m
**.LoRaMedium.neighborCache.refillPeriod = 3000s


**.LoRaMedium.carrierFrequency = 915MHz
**.loRaNodes[*].LoRaNic.radio.carrierFrequency = 915MHz
**.loRaGW[*].LoRaNic.radio.carrierFrequency = 915MHz

**.loRaNodes[*].LoRaNic.radio.energyConsumer.idleCurrentConsumption = 0.0001A
**.loRaNodes[*].LoRaNic.radio.energyConsumer.rxCurrentConsumption = 0.0097A
**.loRaNodes[*].LoRaNic.radio.energyConsumer.txCurrentConsumption = xmldoc("energyConsumptionParameters.xml")
**.loRaNodes[*].energySourceModule.capacity = 1000mAh 


#
## LoRa Medium Configuration
#*.LoRaMedium.communicationRange = 500m
#*.LoRaMedium.propagationDelay = 3ms
#*.LoRaMedium.channel.bandwidth = 125kHz
#
## LoRa Gateway Configuration
#*.loRaGW[*].radio.phy.spreadingFactor = 7
#*.loRaGW[*].radio.phy.bandwidth = 125kHz
#*.loRaGW[*].radio.phy.transmissionPower = 14dBm
#
## LoRa Node Configuration
#*.loRaNodes[*].radio.phy.spreadingFactor = 7
#*.loRaNodes[*].radio.phy.bandwidth = 125kHz
#*.loRaNodes[*].radio.phy.transmissionPower = 14dBm
#
## Application Parameters
#*.loRaNodes[*].applicationType = "UdpBasicApp"
#*.loRaNodes[*].app.destAddress = "loRaGW[0]"
#*.loRaNodes[*].app.packetLength = 50B
#*.loRaNodes[*].app.startTime = uniform(0, 5s)
#*.loRaNodes[*].app.sendInterval = uniform(30s, 60s)
#
#*.loRaGW[*].applicationType = "UdpSinkApp"
#*.loRaGW[*].app.localPort = 5000
#
## Visualization
#*.loRaNodes[*].displayStats = true
#*.loRaGW[*].displayStats = true
#*.networkServer.displayStats = true



[Config VehicleTrack]
network = flora.simulations.LoRaVehicleTest

**.maxTransmissionDuration = 4s
**.energyDetection = -110dBm

#cmdenv-autoflush = true
#cmdenv-status-frequency = 10000000s
#cmdenv-express-mode = false
#cmdenv-output-file = cmd_env_log.txt
**.vector-recording = true

rng-class = "cMersenneTwister"
**.loRaGW[*].numUdpApps = 1
**.loRaGW[0].packetForwarder.localPort = 2000
**.loRaGW[0].packetForwarder.destPort = 1000
**.loRaGW[0].packetForwarder.destAddresses = "networkServer"
**.loRaGW[0].packetForwarder.indexNumber = 0

**.networkServer.numApps = 1
**.networkServer.**.evaluateADRinServer = true
**.networkServer.app[0].typename = "NetworkServerApp"
**.networkServer.app[0].destAddresses = "loRaGW[0]"
**.networkServer.app[0].destPort = 2000
**.networkServer.app[0].localPort = 1000
**.networkServer.app[0].adrMethod = ${"avg"}


**.numberOfPacketsToSend = 0 #${numberOfPAckets = 200..5000 step 200} #100 #obviously 0 means infinite number of packets
sim-time-limit = 1d
repeat = 30

#**.timeToFirstPacket = exponential(1000s)
#**.timeToNextPacket = exponential(1000s)
**.timeToFirstPacket = uniform(120s, 300s)  # Random initial delay between 1 and 3 minutes
**.timeToNextPacket = uniform(120s, 300s)  # Random interval between packet transmissions
**.alohaChannelModel = false

#nodes features
**.numberOfNodes = 5
**.constraintAreaMaxX = 3000m
**.constraintAreaMaxY = 3000m
**.constraintAreaMinX = -3000m
**.constraintAreaMinY = -3000m

# Node positions (fixed for testing)
**.loRaNodes[*].mobility.typename = "StationaryMobility"
**.loRaGW[0].mobility.initialX = 250.0m
**.loRaGW[0].mobility.initialY = 250.0m

**.loRaNodes[0].mobility.initialX = 958.6m
**.loRaNodes[0].mobility.initialY = 958.6m

**.loRaNodes[1].mobility.initialX = 811.2m
**.loRaNodes[1].mobility.initialY = 1311.2m

**.loRaNodes[2].mobility.initialX = 1161.4m
**.loRaNodes[2].mobility.initialY = 661.4m

**.loRaNodes[3].mobility.initialX = 2016.4m
**.loRaNodes[3].mobility.initialY = 1516.4m

**.loRaNodes[4].mobility.initialX = 250.0m
**.loRaNodes[4].mobility.initialY = 2550.0m

**.loRaNodes[*].**initialLoRaSF = 12
**.loRaNodes[*].**initialLoRaTP = 25dBm
**.loRaNodes[*].**initialLoRaBW = 125kHz
**.loRaNodes[*].**dataSize = 20B
**.loRaNodes[*].**initialLoRaCR = 4
**.loRaNodes[*].**.initFromDisplayString = false
**.loRaNodes[*].**.evaluateADRinNode = true
**.loRaNodes[*].numApps = 1
**.loRaNodes[*].receiver.isEnabled = false
**.loRaNodes[*].app[0].typename = "SimpleLoRaApp"
*.loRaNodes[*]..velocity = uniform(10mps, 30mps) # Kecepatan kendaraan 10-30 m/s
*.loRaNodes[*]..direction = uniform(0, 360deg)  # Arah acak


#gateway features
**.numberOfGateways = 1
**.loRaGW[0].**.initialX = 2500.00m
**.loRaGW[0].**.initialY = 2500.00m
#*.loRaGW[0].x = 2500.00m
#*.loRaGW[0].y = 2500.00m
**.LoRaGWNic.radio.iAmGateway = true
**.loRaGW[*].**.initFromDisplayString = false

#power consumption features
**.loRaNodes[*].LoRaNic.radio.energyConsumer.typename = "LoRaEnergyConsumer"
**.loRaNodes[*].**.energySourceModule = "^.IdealEpEnergyStorage"
**.loRaNodes[*].LoRaNic.radio.energyConsumer.configFile = xmldoc("energyConsumptionParameters.xml")

#general features
**.sigma = 2


LoRaNetworkTest.**.radio.separateTransmissionParts = false
LoRaNetworkTest.**.radio.separateReceptionParts = false


**.ipv4Delayer.config = xmldoc("cloudDelays.xml")
**.radio.radioMediumModule = "LoRaMedium"
**.LoRaMedium.pathLossType = "LoRaLogNormalShadowing"
**.displayAddresses = false

# cache features
**.LoRaMedium.mediumLimitCacheType = "LoRaMediumCache"
**.LoRaMedium.rangeFilter = "communicationRange"
**.LoRaMedium.neighborCacheType = "LoRaNeighborCache"
**.LoRaMedium.neighborCache.range = 546m
**.LoRaMedium.neighborCache.refillPeriod = 3000s

**.LoRaMedium.carrierFrequency = 915MHz
**.loRaNodes[*].LoRaNic.radio.carrierFrequency = 915MHz
**.loRaGW[*].LoRaNic.radio.carrierFrequency = 915MHz

#**.loRaNodes[*].LoRaNic.radio.energyConsumer.idleCurrentConsumption = 0.0001A
#**.loRaNodes[*].LoRaNic.radio.energyConsumer.rxCurrentConsumption = 0.0097A
**.loRaNodes[*].LoRaNic.radio.energyConsumer.txCurrentConsumption = xmldoc("energyConsumptionParameters.xml")
#**.loRaNodes[*].energySourceModule.capacity = 1000mAh 

[Config MoreVehicleTrack_1000]
network = flora.simulations.LoRaVehicleTest1000

**.maxTransmissionDuration = 10s
**.energyDetection = -110dBm

**.vector-recording = true

rng-class = "cMersenneTwister"
**.loRaGW[*].numUdpApps = 1
**.loRaGW[0].packetForwarder.localPort = 2000
**.loRaGW[0].packetForwarder.destPort = 1000
**.loRaGW[0].packetForwarder.destAddresses = "networkServer"
**.loRaGW[0].packetForwarder.indexNumber = 0

**.networkServer.numApps = 1
**.networkServer.**.evaluateADRinServer = true
**.networkServer.app[0].typename = "NetworkServerApp"
**.networkServer.app[0].destAddresses = "loRaGW[0]"
**.networkServer.app[0].destPort = 2000
**.networkServer.app[0].localPort = 1000
**.networkServer.app[0].adrMethod = ${"avg"}


**.numberOfPacketsToSend = 0
sim-time-limit = 0.1d
repeat = 30

**.timeToFirstPacket = uniform(100s, 300s)
**.timeToNextPacket = uniform(300s, 600s) 
**.alohaChannelModel = false


# Constraint area
**.constraintAreaMaxX = 2000m
**.constraintAreaMaxY = 2000m
**.constraintAreaMinX = 0m
**.constraintAreaMinY = 0m

# Node initial positions
**.numberOfNodes = 7
**.loRaNodes[0].mobility.initialX = 1565.7m
**.loRaNodes[0].mobility.initialY = 1565.7m

**.loRaNodes[1].mobility.initialX = 363.6m
**.loRaNodes[1].mobility.initialY = 1636.4m

**.loRaNodes[2].mobility.initialX = 469.7m
**.loRaNodes[2].mobility.initialY = 469.7m

**.loRaNodes[3].mobility.initialX = 1707.1m
**.loRaNodes[3].mobility.initialY = 292.9m

**.loRaNodes[4].mobility.initialX = 1000.0m
**.loRaNodes[4].mobility.initialY = 1500.0m

**.loRaNodes[5].mobility.initialX = 400.0m
**.loRaNodes[5].mobility.initialY = 1000.0m

**.loRaNodes[6].mobility.initialX = 1700.0m
**.loRaNodes[6].mobility.initialY = 1000.0m

**.loRaNodes[*].**initialLoRaSF = 12
**.loRaNodes[*].**initialLoRaTP = 20dBm
**.loRaNodes[*].**initialLoRaBW = 125kHz
**.loRaNodes[*].app[0].dataPacketSize = 16B 
**.loRaNodes[*].**initialLoRaCR = 4
**.loRaNodes[*].**.initFromDisplayString = false
**.loRaNodes[*].**.evaluateADRinNode = true
**.loRaNodes[*].numApps = 1
**.loRaNodes[*].receiver.isEnabled = false
**.loRaNodes[*].app[0].typename = "SimpleLoRaApp"


# Enable movement for all nodes
**.loRaNodes[*].mobility.typename = "LinearMobility"
**.loRaNodes[*].mobility.speed = uniform(10mps, 50mps)
**.loRaNodes[*].mobility.angle = uniform(0deg, 360deg)
**.loRaNodes[*].mobility.constraintAreaMinX = 0m
**.loRaNodes[*].mobility.constraintAreaMinY = 0m
**.loRaNodes[*].mobility.constraintAreaMaxX = 1000m
**.loRaNodes[*].mobility.constraintAreaMaxY = 1000m
**.loRaNodes[*].mobility.updateInterval = 1s
**.loRaNodes[*].mobility.nextChangeInterval = 1s
**.loRaNodes[*].mobility.initFromDisplayString = true
**.loRaNodes[*].mobility.displayMovementTrails = true
**.loRaNodes[*].app[0].destAddresses = "loRaGW[0]"


#gateway features
**.numberOfGateways = 1
**.loRaGW[0].**.initialX = 1000.0m
**.loRaGW[0].**.initialY = 1000.0m
**.LoRaGWNic.radio.iAmGateway = true
**.loRaGW[*].**.initFromDisplayString = false
**.loRaGW[*].LoRaNic.radio.recordSignalStrength = true
**.loRaGW[*].LoRaNic.radio.recordReception = true
**.loRaNodes[*].LoRaNic.radio.displayCommunicationRange = true

#power consumption features
**.loRaNodes[*].LoRaNic.radio.energyConsumer.typename = "LoRaEnergyConsumer"
**.loRaNodes[*].**.energySourceModule = "^.IdealEpEnergyStorage"
**.loRaNodes[*].LoRaNic.radio.energyConsumer.configFile = xmldoc("energyConsumptionParameters.xml")

#general features
**.sigma = 3

**.ipv4Delayer.config = xmldoc("cloudDelays.xml")
**.radio.radioMediumModule = "LoRaMedium"
**.LoRaMedium.pathLoss.typename = "LoRaLogNormalShadowing"
**.displayAddresses = false

# cache features
**.LoRaMedium.mediumLimitCacheType = "LoRaMediumCache"
**.LoRaMedium.rangeFilter = "communicationRange"
**.LoRaMedium.neighborCacheType = "LoRaNeighborCache"
**.LoRaMedium.neighborCache.range = 546m
**.LoRaMedium.neighborCache.refillPeriod = 3000s

**.LoRaMedium.recordPathLoss = true
**.LoRaMedium.recordSignalToNoiseRatio = true

**.LoRaMedium.carrierFrequency = 915MHz
**.loRaNodes[*].LoRaNic.radio.carrierFrequency = 915MHz
**.loRaGW[*].LoRaNic.radio.carrierFrequency = 915MHz

**.networkServer.packetTracking = true

[Config MoreVehicleTrack_2000]
network = flora.simulations.LoRaVehicleTest2000

**.maxTransmissionDuration = 10s
**.energyDetection = -110dBm

**.vector-recording = true

rng-class = "cMersenneTwister"
**.loRaGW[*].numUdpApps = 1
**.loRaGW[0].packetForwarder.localPort = 2000
**.loRaGW[0].packetForwarder.destPort = 1000
**.loRaGW[0].packetForwarder.destAddresses = "networkServer"
**.loRaGW[0].packetForwarder.indexNumber = 0

**.networkServer.numApps = 1
**.networkServer.**.evaluateADRinServer = true
**.networkServer.app[0].typename = "NetworkServerApp"
**.networkServer.app[0].destAddresses = "loRaGW[0]"
**.networkServer.app[0].destPort = 2000
**.networkServer.app[0].localPort = 1000
**.networkServer.app[0].adrMethod = ${"avg"}

**.numberOfPacketsToSend = 0 
sim-time-limit = 0.1d
repeat = 30

**.timeToFirstPacket = uniform(100s, 300s)
**.timeToNextPacket = uniform(300s, 600s) 
**.alohaChannelModel = false


# Constraint area
**.constraintAreaMaxX = 4000m
**.constraintAreaMaxY = 4000m
**.constraintAreaMinX = 0m
**.constraintAreaMinY = 0m


#nodes features
**.numberOfNodes = 7
**.loRaNodes[0].mobility.initialX = 2692.8m
**.loRaNodes[0].mobility.initialY = 2400.0m

**.loRaNodes[1].mobility.initialX = 1250.0m
**.loRaNodes[1].mobility.initialY = 3299.0m

**.loRaNodes[2].mobility.initialX = 2134.0m
**.loRaNodes[2].mobility.initialY = 1134.0m

**.loRaNodes[3].mobility.initialX = 2000.0m
**.loRaNodes[3].mobility.initialY = 200.0m

**.loRaNodes[4].mobility.initialX = 3125.0m
**.loRaNodes[4].mobility.initialY = 1349.0m

**.loRaNodes[5].mobility.initialX = 2850.0m
**.loRaNodes[5].mobility.initialY = 3470.0m

**.loRaNodes[6].mobility.initialX = 1134.0m
**.loRaNodes[6].mobility.initialY = 2450.0m

**.loRaNodes[*].**initialLoRaSF = 12
**.loRaNodes[*].**initialLoRaTP = 20dBm
**.loRaNodes[*].**initialLoRaBW = 125kHz
**.loRaNodes[*].app[0].dataPacketSize = 16B 
**.loRaNodes[*].**initialLoRaCR = 4
**.loRaNodes[*].**.initFromDisplayString = false
**.loRaNodes[*].**.evaluateADRinNode = true
**.loRaNodes[*].numApps = 1
**.loRaNodes[*].receiver.isEnabled = false
**.loRaNodes[*].app[0].typename = "SimpleLoRaApp"

# Enable movement for all nodes
**.loRaNodes[*].mobility.typename = "LinearMobility"
**.loRaNodes[*].mobility.speed = uniform(10mps, 50mps)
**.loRaNodes[*].mobility.angle = uniform(0deg, 360deg)
**.loRaNodes[*].mobility.constraintAreaMinX = 0m
**.loRaNodes[*].mobility.constraintAreaMinY = 0m
**.loRaNodes[*].mobility.constraintAreaMaxX = 2000m
**.loRaNodes[*].mobility.constraintAreaMaxY = 2000m
**.loRaNodes[*].mobility.updateInterval = 1s
**.loRaNodes[*].mobility.nextChangeInterval = 1s
**.loRaNodes[*].mobility.initFromDisplayString = true
**.loRaNodes[*].mobility.displayMovementTrails = true
**.loRaNodes[*].app[0].destAddresses = "loRaGW[0]"

#gateway features
**.numberOfGateways = 1
**.loRaGW[0].**.initialX = 2000.0m
**.loRaGW[0].**.initialY = 2000.0m
**.LoRaGWNic.radio.iAmGateway = true
**.loRaGW[*].**.initFromDisplayString = false
**.loRaGW[*].LoRaNic.radio.recordSignalStrength = true
**.loRaGW[*].LoRaNic.radio.recordReception = true
**.loRaNodes[*].LoRaNic.radio.displayCommunicationRange = true

#power consumption features
**.loRaNodes[*].LoRaNic.radio.energyConsumer.typename = "LoRaEnergyConsumer"
**.loRaNodes[*].**.energySourceModule = "^.IdealEpEnergyStorage"
**.loRaNodes[*].LoRaNic.radio.energyConsumer.configFile = xmldoc("energyConsumptionParameters.xml")

#general features
**.sigma = 3

**.ipv4Delayer.config = xmldoc("cloudDelays.xml")
**.radio.radioMediumModule = "LoRaMedium"
**.LoRaMedium.pathLoss.typename = "LoRaLogNormalShadowing"
**.LoRaMedium.pathLoss.shadowingStdDev = 4.0  
**.displayAddresses = false

# cache features
**.LoRaMedium.mediumLimitCacheType = "LoRaMediumCache"
**.LoRaMedium.rangeFilter = "communicationRange"
**.LoRaMedium.neighborCacheType = "LoRaNeighborCache"
**.LoRaMedium.neighborCache.range = 546m
**.LoRaMedium.neighborCache.refillPeriod = 3000s

**.LoRaMedium.recordPathLoss = true
**.LoRaMedium.recordSignalToNoiseRatio = true

**.LoRaMedium.carrierFrequency = 915MHz
**.loRaNodes[*].LoRaNic.radio.carrierFrequency = 915MHz
**.loRaGW[*].LoRaNic.radio.carrierFrequency = 915MHz

**.networkServer.packetTracking = true

[Config MoreVehicleTrack_3000]
network = flora.simulations.LoRaVehicleTest3000

**.maxTransmissionDuration = 10s
**.energyDetection = -110dBm

**.vector-recording = true

rng-class = "cMersenneTwister"
**.loRaGW[*].numUdpApps = 1
**.loRaGW[0].packetForwarder.localPort = 2000
**.loRaGW[0].packetForwarder.destPort = 1000
**.loRaGW[0].packetForwarder.destAddresses = "networkServer"
**.loRaGW[0].packetForwarder.indexNumber = 0

**.networkServer.numApps = 1
**.networkServer.**.evaluateADRinServer = true
**.networkServer.app[0].typename = "NetworkServerApp"
**.networkServer.app[0].destAddresses = "loRaGW[0]"
**.networkServer.app[0].destPort = 2000
**.networkServer.app[0].localPort = 1000
**.networkServer.app[0].adrMethod = ${"avg"}


**.numberOfPacketsToSend = 0
sim-time-limit = 0.1d
repeat = 30

**.timeToFirstPacket = uniform(100s, 300s)
**.timeToNextPacket = uniform(300s, 600s) 
**.alohaChannelModel = false


# Constraint area
**.constraintAreaMaxX = 6000m
**.constraintAreaMaxY = 6000m
**.constraintAreaMinX = 0m
**.constraintAreaMinY = 0m

#nodes features
**.numberOfNodes = 7
**.loRaNodes[0].mobility.initialX = 5165.1m
**.loRaNodes[0].mobility.initialY = 4250.0m

**.loRaNodes[1].mobility.initialX = 2500.0m
**.loRaNodes[1].mobility.initialY = 3866.0m

**.loRaNodes[2].mobility.initialX = 2346.4m
**.loRaNodes[2].mobility.initialY = 1500.0m

**.loRaNodes[3].mobility.initialX = 3000.0m
**.loRaNodes[3].mobility.initialY = 1500.0m

**.loRaNodes[4].mobility.initialX = 4732.1m
**.loRaNodes[4].mobility.initialY = 2000.0m

**.loRaNodes[5].mobility.initialX = 4400.0m
**.loRaNodes[5].mobility.initialY = 5419.6m

**.loRaNodes[6].mobility.initialX = 2134.0m
**.loRaNodes[6].mobility.initialY = 3450.0m

**.loRaNodes[*].**initialLoRaSF = 12
**.loRaNodes[*].**initialLoRaTP = 20dBm
**.loRaNodes[*].**initialLoRaBW = 125kHz
**.loRaNodes[*].app[0].dataPacketSize = 16B 
**.loRaNodes[*].**initialLoRaCR = 4
**.loRaNodes[*].**.initFromDisplayString = false
**.loRaNodes[*].**.evaluateADRinNode = true
**.loRaNodes[*].numApps = 1
**.loRaNodes[*].receiver.isEnabled = false
**.loRaNodes[*].app[0].typename = "SimpleLoRaApp"

# Enable movement for all nodes
**.loRaNodes[*].mobility.typename = "LinearMobility"
**.loRaNodes[*].mobility.speed = uniform(10mps, 50mps)
**.loRaNodes[*].mobility.angle = uniform(0deg, 360deg)
**.loRaNodes[*].mobility.constraintAreaMinX = 0m
**.loRaNodes[*].mobility.constraintAreaMinY = 0m
**.loRaNodes[*].mobility.constraintAreaMaxX = 3000m
**.loRaNodes[*].mobility.constraintAreaMaxY = 3000m
**.loRaNodes[*].mobility.updateInterval = 1s
**.loRaNodes[*].mobility.nextChangeInterval = 1s
**.loRaNodes[*].mobility.initFromDisplayString = true
**.loRaNodes[*].mobility.displayMovementTrails = true
**.loRaNodes[*].app[0].destAddresses = "loRaGW[0]"


#gateway features
**.numberOfGateways = 1
**.loRaGW[0].**.initialX = 3000.0m
**.loRaGW[0].**.initialY = 3000.0m
**.LoRaGWNic.radio.iAmGateway = true
**.loRaGW[*].**.initFromDisplayString = false
**.loRaGW[*].LoRaNic.radio.recordSignalStrength = true
**.loRaGW[*].LoRaNic.radio.recordReception = true
**.loRaNodes[*].LoRaNic.radio.displayCommunicationRange = true

#power consumption features
**.loRaNodes[*].LoRaNic.radio.energyConsumer.typename = "LoRaEnergyConsumer"
**.loRaNodes[*].**.energySourceModule = "^.IdealEpEnergyStorage"
**.loRaNodes[*].LoRaNic.radio.energyConsumer.configFile = xmldoc("energyConsumptionParameters.xml")

#general features
**.sigma = 3

**.ipv4Delayer.config = xmldoc("cloudDelays.xml")
**.radio.radioMediumModule = "LoRaMedium"
**.LoRaMedium.pathLoss.typename = "LoRaLogNormalShadowing"
**.displayAddresses = false



# cache features
**.LoRaMedium.mediumLimitCacheType = "LoRaMediumCache"
**.LoRaMedium.rangeFilter = "communicationRange"
**.LoRaMedium.neighborCacheType = "LoRaNeighborCache"
**.LoRaMedium.neighborCache.range = 546m
**.LoRaMedium.neighborCache.refillPeriod = 3000s

**.LoRaMedium.recordPathLoss = true
**.LoRaMedium.recordSignalToNoiseRatio = true

**.LoRaMedium.carrierFrequency = 915MHz
**.loRaNodes[*].LoRaNic.radio.carrierFrequency = 915MHz
**.loRaGW[*].LoRaNic.radio.carrierFrequency = 915MHz

**.networkServer.packetTracking = true

