[General]
network = flora.simulations.LoRaNetworkTest
**.maxTransmissionDuration = 4s
**.energyDetection = -110dBm

#cmdenv-autoflush = true
#cmdenv-status-frequency = 10000000s
#cmdenv-express-mode = false
#cmdenv-output-file = cmd_env_log.txt
**.vector-recording = true

rng-class = "cMersenneTwister"
**.loRaGW[*].numUdpApps = 1
**.loRaGW[0].packetForwarder.localPort = 2000
**.loRaGW[0].packetForwarder.destPort = 1000
**.loRaGW[0].packetForwarder.destAddresses = "networkServer"
**.loRaGW[0].packetForwarder.indexNumber = 0

**.networkServer.numApps = 1
**.networkServer.**.evaluateADRinServer = true
**.networkServer.app[0].typename = "NetworkServerApp"
**.networkServer.app[0].destAddresses = "loRaGW[0]"
**.networkServer.app[0].destPort = 2000
**.networkServer.app[0].localPort = 1000
**.networkServer.app[0].adrMethod = ${"avg"}


**.numberOfPacketsToSend = 0 #${numberOfPAckets = 200..5000 step 200} #100 #obviously 0 means infinite number of packets
sim-time-limit = 1d
simtime-resolution = -11
repeat = 30

#**.timeToFirstPacket = exponential(1000s)
#**.timeToNextPacket = exponential(1000s)
**.timeToFirstPacket = uniform(120s, 300s)  # Random initial delay between 1 and 3 minutes
**.timeToNextPacket = uniform(120s, 300s)  # Random interval between packet transmissions
**.alohaChannelModel = false

#nodes features
**.numberOfNodes = 10
**.constraintAreaMaxX = 5000m
**.constraintAreaMaxY = 5000m

*.loRaNodes[*].x = uniform(0, networkSizeX)#randomize the value
*.loRaNodes[*].y = uniform(0, networkSizeY)#randomize the value

#**.loRaNodes[0].**.initialX = 300m
#**.loRaNodes[0].**.initialY = 350m
**.loRaNodes[*].**initialLoRaSF = 12
**.loRaNodes[*].**initialLoRaTP = 14dBm
**.loRaNodes[*].**initialLoRaBW = 125 kHz
**.loRaNodes[*].**initialLoRaCR = 4
**.loRaNodes[*].**.initFromDisplayString = false
**.loRaNodes[*].**.evaluateADRinNode = true
**.loRaNodes[*].numApps = 1
**.loRaNodes[*].receiver.isEnabled = false
**.loRaNodes[*].app[0].typename = "SimpleLoRaApp"
*.loRaNodes[*]..velocity = uniform(10mps, 30mps) # Kecepatan kendaraan 10-30 m/s
*.loRaNodes[*]..direction = uniform(0, 360deg)  # Arah acak


#gateway features
**.numberOfGateways = 1
**.loRaGW[0].**.initialX = 2500.00m
**.loRaGW[0].**.initialY = 2500.00m
#*.loRaGW[0].x = 2500.00m
#*.loRaGW[0].y = 2500.00m
**.LoRaGWNic.radio.iAmGateway = true
**.loRaGW[*].**.initFromDisplayString = false

#power consumption features
**.loRaNodes[*].LoRaNic.radio.energyConsumer.typename = "LoRaEnergyConsumer"
**.loRaNodes[*].**.energySourceModule = "^.IdealEpEnergyStorage"
**.loRaNodes[*].LoRaNic.radio.energyConsumer.configFile = xmldoc("energyConsumptionParameters.xml")

#general features
**.sigma = 3.57
**.constraintAreaMinX = 0m
**.constraintAreaMinY = 0m
**.constraintAreaMinZ = 0m
**.constraintAreaMaxZ = 0m

LoRaNetworkTest.**.radio.separateTransmissionParts = false
LoRaNetworkTest.**.radio.separateReceptionParts = false


**.ipv4Delayer.config = xmldoc("cloudDelays.xml")
**.radio.radioMediumModule = "LoRaMedium"
**.LoRaMedium.pathLossType = "LoRaLogNormalShadowing"
**.minInterferenceTime = 0s
**.displayAddresses = false

# cache features
**.LoRaMedium.mediumLimitCacheType = "LoRaMediumCache"
**.LoRaMedium.rangeFilter = "communicationRange"
**.LoRaMedium.neighborCacheType = "LoRaNeighborCache"
**.LoRaMedium.neighborCache.range = 546m
**.LoRaMedium.neighborCache.refillPeriod = 3000s

**.LoRaMedium.carrierFrequency = 915MHz
**.loRaNodes[*].LoRaNic.radio.carrierFrequency = 915MHz
**.loRaGW[*].LoRaNic.radio.carrierFrequency = 915MHz

**.loRaNodes[*].LoRaNic.radio.energyConsumer.idleCurrentConsumption = 0.0001A
**.loRaNodes[*].LoRaNic.radio.energyConsumer.rxCurrentConsumption = 0.0097A
**.loRaNodes[*].LoRaNic.radio.energyConsumer.txCurrentConsumption = xmldoc("energyConsumptionParameters.xml")
**.loRaNodes[*].energySourceModule.capacity = 1000mAh 


#
## LoRa Medium Configuration
#*.LoRaMedium.communicationRange = 500m
#*.LoRaMedium.propagationDelay = 3ms
#*.LoRaMedium.channel.bandwidth = 125kHz
#
## LoRa Gateway Configuration
#*.loRaGW[*].radio.phy.spreadingFactor = 7
#*.loRaGW[*].radio.phy.bandwidth = 125kHz
#*.loRaGW[*].radio.phy.transmissionPower = 14dBm
#
## LoRa Node Configuration
#*.loRaNodes[*].radio.phy.spreadingFactor = 7
#*.loRaNodes[*].radio.phy.bandwidth = 125kHz
#*.loRaNodes[*].radio.phy.transmissionPower = 14dBm
#
## Application Parameters
#*.loRaNodes[*].applicationType = "UdpBasicApp"
#*.loRaNodes[*].app.destAddress = "loRaGW[0]"
#*.loRaNodes[*].app.packetLength = 50B
#*.loRaNodes[*].app.startTime = uniform(0, 5s)
#*.loRaNodes[*].app.sendInterval = uniform(30s, 60s)
#
#*.loRaGW[*].applicationType = "UdpSinkApp"
#*.loRaGW[*].app.localPort = 5000
#
## Visualization
#*.loRaNodes[*].displayStats = true
#*.loRaGW[*].displayStats = true
#*.networkServer.displayStats = true
